Version 4
SHEET 1 4604 680
WIRE 1728 -656 1712 -656
WIRE 1856 -656 1728 -656
WIRE 1952 -656 1856 -656
WIRE 1984 -656 1952 -656
WIRE 2144 -656 2064 -656
WIRE 2288 -656 2144 -656
WIRE 2624 -656 2496 -656
WIRE 2848 -656 2704 -656
WIRE 2912 -656 2896 -656
WIRE 3104 -656 2912 -656
WIRE 3168 -656 3104 -656
WIRE 3232 -656 3168 -656
WIRE 3328 -656 3232 -656
WIRE 2496 -640 2496 -656
WIRE 1712 -608 1712 -656
WIRE 1856 -608 1856 -656
WIRE 1952 -608 1952 -656
WIRE 2144 -608 2144 -656
WIRE 3104 -608 3104 -656
WIRE 3168 -608 3168 -656
WIRE 3232 -608 3232 -656
WIRE 3328 -608 3328 -656
WIRE 2288 -592 2288 -656
WIRE 1712 -496 1712 -528
WIRE 1792 -496 1712 -496
WIRE 1856 -496 1856 -544
WIRE 1920 -496 1856 -496
WIRE 1952 -496 1952 -528
WIRE 1952 -496 1920 -496
WIRE 2496 -480 2496 -560
WIRE 2912 -480 2496 -480
WIRE 3104 -480 3104 -544
WIRE 3104 -480 2912 -480
WIRE 3168 -480 3168 -544
WIRE 3168 -480 3104 -480
WIRE 3232 -480 3232 -544
WIRE 3232 -480 3168 -480
WIRE 3328 -480 3328 -528
WIRE 3328 -480 3232 -480
WIRE 2144 -464 2144 -528
WIRE 2288 -464 2288 -512
WIRE 2288 -464 2144 -464
WIRE 2912 -448 2912 -480
WIRE 1792 -432 1792 -496
WIRE 1920 -416 1920 -496
WIRE 2016 -416 1920 -416
WIRE 2144 -416 2144 -464
WIRE 2144 -416 2080 -416
WIRE 1504 -304 1456 -304
WIRE 1856 -304 1504 -304
WIRE 2032 -304 1856 -304
WIRE 2144 -304 2144 -416
WIRE 2144 -304 2112 -304
WIRE 1456 -288 1456 -304
WIRE 1856 -256 1856 -304
WIRE 1456 -192 1456 -208
WIRE 1696 -192 1456 -192
WIRE 2032 -192 2016 -192
WIRE 1456 -176 1456 -192
WIRE 2144 -176 2144 -304
WIRE 1600 -96 1568 -96
WIRE 1696 -96 1664 -96
WIRE 2096 -96 2016 -96
WIRE 1456 -80 1456 -96
WIRE 2144 -64 2144 -80
WIRE 2144 -64 2080 -64
WIRE 2144 -48 2144 -64
WIRE 2288 -32 2288 -304
WIRE 1600 0 1568 0
WIRE 1696 0 1680 0
WIRE 2080 0 2080 -64
WIRE 2080 0 2016 0
WIRE 2144 48 2144 32
WIRE 1520 96 1504 96
WIRE 1600 96 1584 96
WIRE 1696 96 1680 96
WIRE 2288 96 2288 48
WIRE 2288 96 2016 96
WIRE 2288 112 2288 96
WIRE 1856 176 1856 160
WIRE 2288 208 2288 192
FLAG 1568 0 0
FLAG 2288 208 0
FLAG 1856 176 0
FLAG 1504 96 0
FLAG 1568 -96 0
FLAG 2096 -192 0
FLAG 1456 -80 0
FLAG 2144 48 0
FLAG 1792 -432 0
FLAG 1728 -656 Vin
FLAG 3328 -656 Vout
FLAG 1504 -304 Vin
FLAG 2912 -448 0
FLAG 2288 -304 Vout
SYMBOL NMOS 2096 -176 R0
SYMATTR InstName Q1
SYMATTR Value FDS6680A
SYMBOL RES 1696 16 M270
WINDOW 0 32 56 VTop 2
WINDOW 3 0 56 VBottom 2
SYMATTR InstName R1
SYMATTR Value 41.2K
SYMBOL res 2272 96 R0
SYMATTR InstName R2
SYMATTR Value 20k
SYMBOL res 2272 -48 R0
SYMATTR InstName R3
SYMATTR Value 130k
SYMBOL res 1696 112 M270
WINDOW 0 32 56 VTop 2
WINDOW 3 0 56 VBottom 2
SYMATTR InstName R4
SYMATTR Value 22K
SYMBOL cap 1584 112 M270
WINDOW 0 32 32 VTop 2
WINDOW 3 0 32 VBottom 2
SYMATTR InstName C2
SYMATTR Value 6800p
SYMBOL polcap 2032 -208 M90
WINDOW 0 0 32 VBottom 2
WINDOW 3 32 32 VTop 2
SYMATTR InstName C3
SYMATTR Value 4.7µ
SYMBOL cap 1664 -112 R90
WINDOW 0 0 32 VBottom 2
WINDOW 3 32 32 VTop 2
SYMATTR InstName C4
SYMATTR Value .01µ
SYMBOL res 1440 -192 R0
SYMATTR InstName R5
SYMATTR Value 43.2K
SYMBOL res 1440 -304 R0
SYMATTR InstName R6
SYMATTR Value 200K
SYMBOL res 2128 -64 R0
SYMATTR InstName R7
SYMATTR Value .01
SYMBOL PowerProducts\\LT3757A 1856 -48 R0
SYMATTR InstName U1
SYMBOL voltage 1712 -624 R0
WINDOW 123 0 0 Left 0
WINDOW 39 0 0 Left 0
SYMATTR InstName V2
SYMATTR Value 20
SYMBOL ind2 2304 -496 R180
WINDOW 0 36 80 Left 2
WINDOW 3 36 40 Left 2
SYMATTR InstName L2
SYMATTR Value 100µ
SYMATTR Type ind
SYMBOL ind2 2480 -656 R0
SYMATTR InstName L3
SYMATTR Value 100µ
SYMATTR Type ind
SYMBOL res 3312 -624 R0
SYMATTR InstName R8
SYMATTR Value 5
SYMBOL polcap 3216 -608 R0
WINDOW 3 24 56 Left 2
SYMATTR InstName C5
SYMATTR Value 20µ
SYMATTR SpiceLine V=63 Irms=2.92 Rser=0.004 Lser=5.32n
SYMATTR Description Capacitor
SYMATTR Type cap
SYMBOL schottky 2848 -640 R270
WINDOW 0 32 32 VTop 2
WINDOW 3 0 32 VBottom 2
SYMATTR InstName D2
SYMATTR Value MBR20100CT
SYMATTR Description Diode
SYMATTR Type diode
SYMBOL polcap 1840 -608 R0
WINDOW 3 24 56 Left 2
SYMATTR Value 18µ
SYMATTR InstName C6
SYMATTR Description Capacitor
SYMATTR Type cap
SYMATTR SpiceLine V=50 Irms=1.87845 Rser=0.07 Lser=0 mfg="KEMET" pn="T521X186M050ATE070" type="Tantalum"
SYMBOL ind 2128 -624 R0
SYMATTR InstName Lm1
SYMATTR Value 19µ
SYMBOL res 2080 -672 R90
WINDOW 0 0 56 VBottom 2
WINDOW 3 32 56 VTop 2
SYMATTR InstName R9
SYMATTR Value 4.606m
SYMBOL res 2720 -672 R90
WINDOW 0 0 56 VBottom 2
WINDOW 3 32 56 VTop 2
SYMATTR InstName R10
SYMATTR Value 4.606m
SYMBOL ind 2016 -288 R270
WINDOW 0 32 56 VTop 2
WINDOW 3 5 56 VBottom 2
SYMATTR InstName L1
SYMATTR Value 10µ
SYMBOL res 1936 -624 R0
SYMATTR InstName R11
SYMATTR Value 500k
SYMBOL diode 2080 -432 R90
WINDOW 0 0 32 VBottom 2
WINDOW 3 32 32 VTop 2
SYMATTR InstName D1
SYMBOL cap 3152 -608 R0
SYMATTR InstName C1
SYMATTR Value 39µ
SYMATTR SpiceLine V=35 Irms=2.7 Rser=0.0113 Lser=5.18n mfg="Würth Elektronik" pn="875075655001 WCAP-PSLC 8 x 11,7" type="Al polymer"
SYMBOL polcap 3088 -608 R0
WINDOW 3 24 56 Left 2
SYMATTR InstName C7
SYMATTR Value 470µ
SYMATTR Description Capacitor
SYMATTR Type cap
SYMATTR SpiceLine V=450 Irms=1.94 Rser=0.086 Lser=8n mfg="Würth Elektronik" pn="861141485033 WCAP-AI3H 30x40" type="Al electrolytic"
TEXT 2400 192 Left 2 !.tran 1.5m startup
TEXT 2344 -672 Left 2 !K L2 L3 1
