Version 4
SHEET 1 1560 1344
WIRE -256 48 -720 48
WIRE -144 48 -256 48
WIRE -32 48 -144 48
WIRE 80 48 -32 48
WIRE 400 48 288 48
WIRE 592 48 464 48
WIRE 768 48 592 48
WIRE 288 64 288 48
WIRE 592 64 592 48
WIRE -256 80 -256 48
WIRE -144 80 -144 48
WIRE 768 80 768 48
WIRE -720 112 -720 48
WIRE -32 176 -32 128
WIRE 16 176 -32 176
WIRE 80 176 80 128
WIRE 80 176 16 176
WIRE 288 176 288 144
WIRE 592 176 592 128
WIRE 592 176 288 176
WIRE 768 176 768 160
WIRE 768 176 592 176
WIRE 1024 176 944 176
WIRE 1280 176 1024 176
WIRE -256 192 -256 160
WIRE -192 192 -256 192
WIRE -144 192 -144 144
WIRE -144 192 -192 192
WIRE -192 240 -192 192
WIRE 944 256 944 176
WIRE 1024 256 1024 176
WIRE -192 336 -192 304
WIRE 16 336 16 176
WIRE 16 336 -192 336
WIRE 1280 336 1280 176
WIRE 944 384 944 336
WIRE 944 384 912 384
WIRE -192 448 -192 336
WIRE 720 480 672 480
WIRE 1024 480 1024 336
WIRE 1024 480 912 480
WIRE -384 528 -416 528
WIRE -240 528 -384 528
WIRE 1024 528 1024 480
WIRE -384 560 -384 528
WIRE 1280 560 1280 416
WIRE 1280 560 1056 560
WIRE 1280 608 1280 560
WIRE 672 624 672 480
WIRE -384 656 -384 640
WIRE 1024 736 1024 592
WIRE 1280 736 1280 688
WIRE -416 768 -528 768
WIRE -192 768 -192 544
WIRE -192 768 -336 768
WIRE 256 768 128 768
WIRE 544 768 480 768
WIRE -192 800 -192 768
WIRE -528 816 -528 768
WIRE 256 832 224 832
WIRE 512 832 480 832
WIRE 816 832 512 832
WIRE 256 896 224 896
WIRE 512 896 480 896
WIRE 592 896 512 896
WIRE -528 928 -528 880
WIRE -192 928 -192 880
WIRE 592 928 592 896
WIRE 720 928 720 912
WIRE 720 928 592 928
WIRE 816 928 816 896
WIRE 816 928 720 928
WIRE 192 960 80 960
WIRE 224 960 192 960
WIRE 256 960 224 960
WIRE 512 960 480 960
WIRE 544 960 512 960
WIRE 576 960 544 960
WIRE 80 976 80 960
WIRE 576 992 576 960
WIRE 576 1088 576 1056
WIRE 192 1184 192 960
WIRE 320 1184 192 1184
WIRE 544 1184 544 960
WIRE 544 1184 400 1184
FLAG 224 896 Ifb
FLAG 224 960 osc
FLAG 512 896 Vfb
FLAG 512 960 ref
FLAG 512 832 err
FLAG 224 832 out
FLAG -720 192 0
FLAG -720 112 Vin
FLAG -192 928 0
FLAG 48 768 0
FLAG -496 528 out
FLAG -528 928 0
FLAG 576 1088 0
FLAG 544 768 0
FLAG 80 1040 0
FLAG -528 768 Ifb
FLAG -384 656 0
FLAG 768 48 Vout
FLAG 1280 176 Vout
FLAG 672 624 0
FLAG 768 176 SeconderGND
FLAG 1280 736 SeconderGND
FLAG 1024 736 SeconderGND
FLAG 816 928 0
FLAG 720 384 err
SYMBOL UC3845 368 864 M0
WINDOW 39 0 166 Center 2
SYMATTR SpiceLine toggle=1
SYMATTR InstName X1
SYMBOL voltage -720 96 R0
WINDOW 123 0 0 Left 0
WINDOW 39 0 0 Left 0
SYMATTR InstName V1
SYMATTR Value 40
SYMBOL ind -48 32 R0
SYMATTR InstName Lm
SYMATTR Value 10µ
SYMBOL ind2 64 32 R0
SYMATTR InstName Lprim
SYMATTR Value 100µ
SYMATTR Type ind
SYMBOL ind2 304 160 R180
WINDOW 0 36 80 Left 2
WINDOW 3 36 40 Left 2
SYMATTR InstName Lsec
SYMATTR Value 100µ
SYMATTR Type ind
SYMBOL res -272 64 R0
SYMATTR InstName R1
SYMATTR Value 22k
SYMBOL cap -160 80 R0
SYMATTR InstName C1
SYMATTR Value 10n
SYMBOL schottky -176 304 R180
WINDOW 0 24 64 Left 2
WINDOW 3 24 0 Left 2
SYMATTR InstName D1
SYMATTR Value RBQ20BM100A
SYMATTR Description Diode
SYMATTR Type diode
SYMBOL nmos -240 448 R0
SYMATTR InstName M1
SYMATTR Value IRFH5053
SYMBOL res -208 784 R0
SYMATTR InstName R2
SYMATTR Value 0.035
SYMBOL voltage 144 768 R90
WINDOW 123 0 0 Left 0
WINDOW 39 0 0 Left 0
SYMATTR InstName V2
SYMATTR Value 10
SYMBOL res -400 544 R0
SYMATTR InstName R3
SYMATTR Value 10k
SYMBOL res -400 512 R90
WINDOW 0 0 56 VBottom 2
WINDOW 3 32 56 VTop 2
SYMATTR InstName R4
SYMATTR Value 10
SYMBOL res -320 752 R90
WINDOW 0 0 56 VBottom 2
WINDOW 3 32 56 VTop 2
SYMATTR InstName R5
SYMATTR Value 1k
SYMBOL cap -544 816 R0
SYMATTR InstName C2
SYMATTR Value 10n
SYMBOL cap 560 992 R0
SYMATTR InstName C3
SYMATTR Value 470n
SYMBOL res 416 1168 R90
WINDOW 0 0 56 VBottom 2
WINDOW 3 32 56 VTop 2
SYMATTR InstName R6
SYMATTR Value 10k
SYMBOL cap 64 976 R0
SYMATTR InstName C4
SYMATTR Value 1n
SYMBOL schottky 400 64 R270
WINDOW 0 32 32 VTop 2
WINDOW 3 0 32 VBottom 2
SYMATTR InstName D2
SYMATTR Value RBR30NS60A
SYMATTR Description Diode
SYMATTR Type diode
SYMBOL cap 576 64 R0
SYMATTR InstName C5
SYMATTR Value 1000µ
SYMBOL res 752 64 R0
SYMATTR InstName R7
SYMATTR Value 10
SYMBOL References\\LT1009 1024 560 R0
SYMATTR InstName U1
SYMBOL Optos\\PC817A 816 432 M0
SYMATTR InstName U2
SYMBOL res 1264 320 R0
SYMATTR InstName R8
SYMATTR Value 9.5k
SYMBOL res 1264 592 R0
SYMATTR InstName R9
SYMATTR Value 2.5k
SYMBOL res 1008 240 R0
SYMATTR InstName R10
SYMATTR Value 1k
SYMBOL res 928 240 R0
SYMATTR InstName R11
SYMATTR Value 1k
SYMBOL cap 800 832 R0
SYMATTR InstName C7
SYMATTR Value 1n
TEXT -64 -288 Left 2 !.tran 0 5m 1u uic
TEXT -64 -320 Left 2 ;.options Trtol=9 Method=trapmod
TEXT 440 -400 Left 2 ;UC3845 test schematic, copied\nfrom analogspiceman's example,\nbut using a different model.\n \nVlad, groups.io
TEXT 152 -8 Left 2 !K Lprim Lsec 1
