Version 4
SHEET 1 2072 1400
WIRE 80 64 64 64
WIRE 208 64 80 64
WIRE 336 64 208 64
WIRE 512 64 416 64
WIRE 640 64 512 64
WIRE 976 64 848 64
WIRE 1200 64 1056 64
WIRE 1264 64 1248 64
WIRE 1360 64 1264 64
WIRE 1456 64 1360 64
WIRE 848 96 848 64
WIRE 64 112 64 64
WIRE 208 112 208 64
WIRE 512 112 512 64
WIRE 640 112 640 64
WIRE 1360 112 1360 64
WIRE 1456 112 1456 64
WIRE 64 224 64 192
WIRE 144 224 64 224
WIRE 208 224 208 176
WIRE 208 224 144 224
WIRE 848 240 848 176
WIRE 1264 240 848 240
WIRE 1360 240 1360 176
WIRE 1360 240 1264 240
WIRE 1456 240 1456 192
WIRE 1456 240 1360 240
WIRE 512 256 512 192
WIRE 640 256 640 192
WIRE 640 256 512 256
WIRE 1264 272 1264 240
WIRE 144 288 144 224
WIRE 512 304 512 256
WIRE -624 336 -624 320
WIRE 464 384 272 384
WIRE -624 448 -624 416
WIRE 512 464 512 400
WIRE 512 464 384 464
WIRE 512 480 512 464
WIRE 1456 528 1360 528
WIRE 1568 528 1456 528
WIRE -112 544 -192 544
WIRE 272 544 272 384
WIRE 272 544 240 544
WIRE -624 560 -624 528
WIRE -192 560 -192 544
WIRE 1360 560 1360 528
WIRE 512 576 512 560
WIRE 1568 592 1568 528
WIRE -624 656 -624 640
WIRE -336 656 -624 656
WIRE -112 656 -336 656
WIRE 384 656 384 464
WIRE 384 656 240 656
WIRE -624 672 -624 656
WIRE 1120 688 1040 688
WIRE 1360 688 1360 640
WIRE 1360 688 1312 688
WIRE -336 736 -336 720
WIRE -624 768 -624 752
WIRE -112 768 -624 768
WIRE 336 768 240 768
WIRE 640 768 640 736
WIRE 640 768 336 768
WIRE 640 784 640 768
WIRE 1072 784 1024 784
WIRE 1120 784 1072 784
WIRE 1360 784 1312 784
WIRE -624 800 -624 768
WIRE 1072 816 1072 784
WIRE 1360 832 1360 784
WIRE 1440 832 1360 832
WIRE 1568 832 1568 672
WIRE 1568 832 1504 832
WIRE 336 848 336 768
WIRE -112 880 -368 880
WIRE -368 896 -368 880
WIRE 640 896 640 864
WIRE -624 912 -624 880
WIRE 1072 912 1072 896
WIRE 1360 912 1360 832
WIRE 1568 944 1568 832
WIRE 1568 944 1392 944
WIRE 1568 976 1568 944
WIRE -224 992 -256 992
WIRE -112 992 -144 992
WIRE 336 992 336 912
WIRE 336 992 240 992
WIRE -256 1040 -256 992
WIRE 1360 1056 1360 976
WIRE 1472 1056 1360 1056
WIRE 1568 1056 1472 1056
WIRE 1472 1088 1472 1056
WIRE -112 1104 -160 1104
WIRE 304 1104 304 1072
WIRE 304 1104 240 1104
WIRE -160 1120 -160 1104
WIRE 304 1120 304 1104
WIRE 304 1200 304 1184
WIRE 0 1216 0 1184
WIRE 128 1216 128 1184
FLAG 512 576 0
FLAG 144 288 0
FLAG 1264 272 0
FLAG 80 64 Vin
FLAG -192 544 Vin
FLAG -192 624 0
FLAG 640 896 0
FLAG 1456 64 Vout
FLAG 1456 528 Vout
FLAG 0 1216 0
FLAG 128 1216 0
FLAG -368 960 0
FLAG -256 1040 0
FLAG -160 1120 0
FLAG -624 320 Vin
FLAG -624 912 0
FLAG -336 736 0
FLAG 1040 688 Vdrv
FLAG 304 1072 Vdrv
FLAG 1024 784 Vfb
FLAG 1072 912 0
FLAG 304 1200 0
FLAG 640 656 Vfb
FLAG 1472 1088 0
SYMBOL voltage 64 96 R0
WINDOW 123 0 0 Left 0
WINDOW 39 0 0 Left 0
SYMATTR InstName V1
SYMATTR Value 20
SYMBOL ind2 624 96 R0
SYMATTR InstName L1
SYMATTR Value 100µ
SYMATTR Type ind
SYMBOL ind2 864 192 R180
WINDOW 0 36 80 Left 2
WINDOW 3 36 40 Left 2
SYMATTR InstName L2
SYMATTR Value 100µ
SYMATTR Type ind
SYMBOL res 1440 96 R0
SYMATTR InstName R2
SYMATTR Value 5
SYMBOL cap 1344 112 R0
SYMATTR InstName C1
SYMATTR Value 20µ
SYMBOL schottky 1200 80 R270
WINDOW 0 32 32 VTop 2
WINDOW 3 0 32 VBottom 2
SYMATTR InstName D1
SYMATTR Value 1N5818
SYMATTR Description Diode
SYMATTR Type diode
SYMBOL cap 192 112 R0
SYMATTR InstName C2
SYMATTR Value 20µ
SYMBOL ind 496 96 R0
SYMATTR InstName Lm
SYMATTR Value 19µ
SYMBOL nmos 464 304 R0
SYMATTR InstName M1
SYMATTR Value BSP89
SYMBOL res 432 48 R90
WINDOW 0 0 56 VBottom 2
WINDOW 3 32 56 VTop 2
SYMATTR InstName R1
SYMATTR Value 4.606m
SYMBOL res 1072 48 R90
WINDOW 0 0 56 VBottom 2
WINDOW 3 32 56 VTop 2
SYMATTR InstName R3
SYMATTR Value 4.606m
SYMBOL PowerProducts\\MAX17597 64 784 R0
SYMATTR InstName U1
SYMBOL cap -208 560 R0
SYMATTR InstName C3
SYMATTR Value 20µ
SYMBOL res 496 464 R0
SYMATTR InstName R4
SYMATTR Value 21.5m
SYMBOL res 624 640 R0
SYMATTR InstName R5
SYMATTR Value 89.1k
SYMBOL res 624 768 R0
SYMATTR InstName R6
SYMATTR Value 10k
SYMBOL cap -384 896 R0
SYMATTR InstName C4
SYMATTR Value 100n
SYMBOL res -128 976 R90
WINDOW 0 0 56 VBottom 2
WINDOW 3 32 56 VTop 2
SYMATTR InstName R7
SYMATTR Value 100k
SYMBOL cap 320 848 R0
SYMATTR InstName C5
SYMATTR Value 58p
SYMBOL res -640 320 R0
SYMATTR InstName R8
SYMATTR Value 549k
SYMBOL res -640 432 R0
SYMATTR InstName R9
SYMATTR Value 549k
SYMBOL res -640 544 R0
SYMATTR InstName R10
SYMATTR Value 549k
SYMBOL res -640 656 R0
SYMATTR InstName R11
SYMATTR Value 19.8k
SYMBOL res -640 784 R0
SYMATTR InstName R12
SYMATTR Value 4.99k
SYMBOL cap -352 656 R0
SYMATTR InstName C6
SYMATTR Value 470n
SYMBOL Optos\\PC817C 1216 736 M0
SYMATTR InstName U2
SYMBOL res 1344 544 R0
SYMATTR InstName R13
SYMATTR Value 4.99k
SYMBOL res 1552 576 R0
SYMATTR InstName R14
SYMATTR Value 2.49k
SYMBOL res 1552 960 R0
SYMATTR InstName R15
SYMATTR Value 221
SYMBOL cap 1504 816 R90
WINDOW 0 0 32 VBottom 2
WINDOW 3 32 32 VTop 2
SYMATTR InstName C7
SYMATTR Value 69n
SYMBOL res 1056 800 R0
SYMATTR InstName R16
SYMATTR Value 470
SYMBOL cap 288 1120 R0
SYMATTR InstName C8
SYMATTR Value 1µ
SYMBOL References\\RH1009 1360 944 R0
SYMATTR InstName U4
TEXT 72 -80 Left 2 !.param D=0.35
TEXT 72 -40 Left 2 !.param fs=100k
TEXT 80 0 Left 2 !K L1 L2 1
TEXT 80 -152 Left 2 !.tran 10m
