Version 4
SHEET 1 2016 1428
WIRE -192 144 -384 144
WIRE 208 144 -192 144
WIRE 352 144 208 144
WIRE 480 144 352 144
WIRE 816 144 480 144
WIRE 944 144 816 144
WIRE 1200 144 1088 144
WIRE 1360 144 1264 144
WIRE 1424 144 1360 144
WIRE 1568 144 1504 144
WIRE 1952 144 1568 144
WIRE -384 192 -384 144
WIRE -192 192 -192 144
WIRE 208 192 208 144
WIRE 352 192 352 144
WIRE 480 192 480 144
WIRE 816 192 816 144
WIRE 944 192 944 144
WIRE 1088 192 1088 144
WIRE 1360 192 1360 144
WIRE 1568 192 1568 144
WIRE 1952 192 1952 144
WIRE 208 304 208 272
WIRE 352 304 352 272
WIRE 352 304 208 304
WIRE 480 304 480 256
WIRE 480 304 352 304
WIRE 624 304 480 304
WIRE 816 304 816 272
WIRE 816 304 688 304
WIRE 944 304 944 272
WIRE 944 304 816 304
WIRE 1088 304 1088 272
WIRE 1360 304 1360 256
WIRE 1360 304 1088 304
WIRE 1568 304 1568 256
WIRE 1568 304 1360 304
WIRE 1952 304 1952 272
WIRE 1952 304 1568 304
WIRE -384 320 -384 272
WIRE -192 320 -192 256
WIRE 1424 464 1248 464
WIRE 1856 464 1856 432
WIRE 1856 464 1424 464
WIRE 1856 512 1856 464
WIRE 1248 544 1248 464
WIRE 1424 544 1424 464
WIRE 1248 688 1248 624
WIRE 1248 688 1200 688
WIRE 1424 704 1424 624
WIRE 1536 704 1424 704
WIRE 1664 704 1600 704
WIRE 288 784 224 784
WIRE 480 784 368 784
WIRE 832 784 768 784
WIRE 944 784 912 784
WIRE 1008 784 944 784
WIRE 1424 784 1424 704
WIRE 1424 784 1200 784
WIRE 1520 784 1424 784
WIRE 1664 784 1664 704
WIRE 1664 784 1600 784
WIRE 1728 784 1664 784
WIRE 1856 784 1856 592
WIRE 1856 784 1792 784
WIRE -592 816 -656 816
WIRE -384 816 -512 816
WIRE 944 832 944 784
WIRE 1424 832 1424 784
WIRE 1856 864 1856 784
WIRE 1856 864 1456 864
WIRE -384 880 -416 880
WIRE -128 880 -160 880
WIRE 1856 896 1856 864
WIRE 256 912 224 912
WIRE 288 912 256 912
WIRE 528 912 528 800
WIRE 528 912 368 912
WIRE -384 944 -416 944
WIRE -128 944 -160 944
WIRE 256 944 256 912
WIRE 528 944 528 912
WIRE 944 944 944 912
WIRE -384 1008 -416 1008
WIRE -128 1008 -160 1008
WIRE 1424 1024 1424 896
WIRE 1856 1024 1856 976
WIRE 1856 1024 1424 1024
WIRE 1856 1040 1856 1024
WIRE 256 1056 256 1008
WIRE 528 1056 528 1024
WIRE 96 1104 -16 1104
WIRE -16 1136 -16 1104
WIRE 96 1136 96 1104
WIRE 448 1168 432 1168
WIRE 576 1168 448 1168
WIRE 576 1216 576 1168
WIRE -16 1232 -16 1200
WIRE 448 1232 448 1168
WIRE 96 1264 96 1216
WIRE 176 1264 96 1264
WIRE 96 1296 96 1264
WIRE 448 1344 448 1296
WIRE 448 1344 432 1344
WIRE 576 1344 576 1296
WIRE 576 1344 448 1344
WIRE 96 1408 96 1360
FLAG -416 944 Ifb
FLAG -416 1008 rt/ct
FLAG -128 944 Vfb
FLAG -128 1008 ref
FLAG -128 880 comp
FLAG -416 880 out
FLAG -384 320 0
FLAG -192 320 0
FLAG 1952 144 Vout
FLAG 1856 432 Vout
FLAG 1952 304 SecGND
FLAG 1856 1040 SecGND
FLAG 944 944 0
FLAG 1008 688 ref
FLAG 768 784 Vfb
FLAG -160 816 0
FLAG -384 816 Vc
FLAG 816 304 Drain
FLAG 528 704 Drain
FLAG 528 1056 0
FLAG 224 912 Ifb
FLAG 224 784 out
FLAG -16 1232 0
FLAG 96 1408 0
FLAG -16 1104 ref
FLAG 176 1264 rt/ct
FLAG 432 1168 comp
FLAG 432 1344 Vfb
FLAG 256 1056 0
FLAG -656 816 0
SYMBOL UC3845 -272 912 M0
WINDOW 39 0 166 Center 2
SYMATTR SpiceLine toggle=1
SYMATTR InstName X1
SYMBOL voltage -384 176 R0
WINDOW 123 0 0 Left 0
WINDOW 39 0 0 Left 0
SYMATTR InstName V1
SYMATTR Value 20
SYMBOL cap -208 192 R0
SYMATTR InstName C1
SYMATTR Value 4.7µ
SYMBOL res 192 176 R0
SYMATTR InstName R3
SYMATTR Value 192
SYMBOL res 336 176 R0
SYMATTR InstName R4
SYMATTR Value 192
SYMBOL cap 464 192 R0
SYMATTR InstName C4
SYMATTR Value 4.7µ
SYMBOL diode 688 288 R90
WINDOW 0 0 32 VBottom 2
WINDOW 3 32 32 VTop 2
SYMATTR InstName D1
SYMBOL ind2 928 176 R0
SYMATTR InstName Lprim
SYMATTR Value 100µ
SYMATTR Type ind
SYMBOL ind2 1104 288 R180
WINDOW 0 36 80 Left 2
WINDOW 3 36 40 Left 2
SYMATTR InstName Lsec
SYMATTR Value 100µ
SYMATTR Type ind
SYMBOL diode 1200 160 R270
WINDOW 0 32 32 VTop 2
WINDOW 3 0 32 VBottom 2
SYMATTR InstName D3
SYMBOL cap 1344 192 R0
SYMATTR InstName C5
SYMATTR Value 330µ
SYMBOL ind 1408 160 R270
WINDOW 0 32 56 VTop 2
WINDOW 3 5 56 VBottom 2
SYMATTR InstName L4
SYMATTR Value 1.5µ
SYMBOL cap 1552 192 R0
SYMATTR InstName C6
SYMATTR Value 270µ
SYMBOL res 1936 176 R0
SYMATTR InstName R6
SYMATTR Value 10
SYMBOL res 1840 496 R0
SYMATTR InstName R7
SYMATTR Value 13.7k
SYMBOL res 1840 880 R0
SYMATTR InstName R8
SYMATTR Value 3.6k
SYMBOL tl431 1440 832 M0
SYMATTR InstName U1
SYMBOL res 1408 528 R0
SYMATTR InstName R9
SYMATTR Value 4.87k
SYMBOL res 1232 528 R0
SYMATTR InstName R10
SYMATTR Value 2.21k
SYMBOL res 1616 768 R90
WINDOW 0 0 56 VBottom 2
WINDOW 3 32 56 VTop 2
SYMATTR InstName R11
SYMATTR Value 365k
SYMBOL cap 1792 768 R90
WINDOW 0 0 32 VBottom 2
WINDOW 3 32 32 VTop 2
SYMATTR InstName C7
SYMATTR Value 120p
SYMBOL cap 1600 688 R90
WINDOW 0 0 32 VBottom 2
WINDOW 3 32 32 VTop 2
SYMATTR InstName C8
SYMATTR Value 22p
SYMBOL Optos\\PC817A 1104 736 M0
SYMATTR InstName U2
SYMBOL res 928 816 R0
SYMATTR InstName R12
SYMATTR Value 2.55k
SYMBOL res 928 768 R90
WINDOW 0 0 56 VBottom 2
WINDOW 3 32 56 VTop 2
SYMATTR InstName R13
SYMATTR Value 4.99k
SYMBOL ind 800 176 R0
SYMATTR InstName L5
SYMATTR Value 19µ
SYMBOL nmos 480 704 R0
SYMATTR InstName M1
SYMATTR Value IRFR120Z
SYMBOL res 512 928 R0
SYMATTR InstName R14
SYMATTR Value 39m
SYMBOL res 384 768 R90
WINDOW 0 0 56 VBottom 2
WINDOW 3 32 56 VTop 2
SYMATTR InstName R15
SYMATTR Value 7.87
SYMBOL res 384 896 R90
WINDOW 0 0 56 VBottom 2
WINDOW 3 32 56 VTop 2
SYMATTR InstName R16
SYMATTR Value 1k
SYMBOL cap -32 1136 R0
SYMATTR InstName C9
SYMATTR Value 100n
SYMBOL res 80 1120 R0
SYMATTR InstName R17
SYMATTR Value 10.7k
SYMBOL cap 80 1296 R0
SYMATTR InstName C10
SYMATTR Value 1n
SYMBOL cap 432 1232 R0
SYMATTR InstName C11
SYMATTR Value 1n
SYMBOL res 560 1200 R0
SYMATTR InstName R18
SYMATTR Value 10k
SYMBOL cap 240 944 R0
SYMATTR InstName C12
SYMATTR Value 470p
SYMBOL voltage -496 816 R90
WINDOW 0 -32 56 VBottom 2
WINDOW 3 32 56 VTop 2
WINDOW 123 0 0 Left 0
WINDOW 39 0 0 Left 0
SYMATTR InstName V2
SYMATTR Value 10
TEXT -64 -288 Left 2 !.tran 0 5m 1u uic
TEXT -64 -320 Left 2 ;.options Trtol=9 Method=trapmod
TEXT 440 -400 Left 2 ;UC3845 test schematic, copied\nfrom analogspiceman's example,\nbut using a different model.\n \nVlad, groups.io
TEXT -64 -256 Left 2 !.include tl431.mod
TEXT 944 72 Left 2 !K Lprim Lsec 1
