Version 4
SHEET 1 3352 2004
WIRE 1552 448 784 448
WIRE -784 544 -1152 544
WIRE -768 544 -784 544
WIRE -640 544 -768 544
WIRE -544 544 -640 544
WIRE -512 544 -544 544
WIRE -352 544 -432 544
WIRE -208 544 -352 544
WIRE 128 544 0 544
WIRE 352 544 208 544
WIRE 416 544 400 544
WIRE 528 544 416 544
WIRE 560 544 528 544
WIRE 672 544 640 544
WIRE 736 544 672 544
WIRE 784 544 784 448
WIRE 784 544 736 544
WIRE 832 544 784 544
WIRE 0 560 0 544
WIRE -784 592 -784 544
WIRE -640 592 -640 544
WIRE -544 592 -544 544
WIRE -352 592 -352 544
WIRE 528 592 528 544
WIRE 672 592 672 544
WIRE 736 592 736 544
WIRE 832 592 832 544
WIRE -208 608 -208 544
WIRE -1152 640 -1152 544
WIRE -784 704 -784 672
WIRE -704 704 -784 704
WIRE -640 704 -640 656
WIRE -576 704 -640 704
WIRE -544 704 -544 672
WIRE -544 704 -576 704
WIRE 0 720 0 640
WIRE 416 720 0 720
WIRE 528 720 528 656
WIRE 528 720 416 720
WIRE 672 720 672 656
WIRE 672 720 528 720
WIRE 736 720 736 656
WIRE 736 720 672 720
WIRE 832 720 832 672
WIRE 832 720 736 720
WIRE -352 736 -352 672
WIRE -208 736 -208 688
WIRE -208 736 -352 736
WIRE 416 752 416 720
WIRE -704 768 -704 704
WIRE -576 784 -576 704
WIRE -480 784 -576 784
WIRE -352 784 -352 736
WIRE -352 784 -416 784
WIRE -1152 864 -1152 720
WIRE -1152 864 -1216 864
WIRE -1072 864 -1152 864
WIRE -960 864 -1008 864
WIRE -816 864 -880 864
WIRE -1152 896 -1152 864
WIRE -816 976 -816 944
WIRE -1152 992 -1152 960
WIRE 1424 1024 1312 1024
WIRE 1552 1024 1552 448
WIRE 1552 1024 1424 1024
WIRE 1680 1024 1552 1024
WIRE -1216 1056 -1216 864
WIRE 112 1056 -1216 1056
WIRE 384 1056 336 1056
WIRE 1312 1056 1312 1024
WIRE 1424 1072 1424 1024
WIRE -352 1088 -352 784
WIRE 1680 1088 1680 1024
WIRE 112 1120 -80 1120
WIRE 384 1120 336 1120
WIRE -256 1168 -304 1168
WIRE -80 1168 -80 1120
WIRE -80 1168 -176 1168
WIRE 1424 1168 1424 1152
WIRE 1472 1168 1424 1168
WIRE 384 1184 336 1184
WIRE 1072 1184 1008 1184
WIRE 1312 1184 1312 1136
WIRE 1312 1184 1264 1184
WIRE 1472 1184 1472 1168
WIRE -352 1248 -352 1184
WIRE -240 1248 -352 1248
WIRE 1072 1280 1024 1280
WIRE 1312 1280 1264 1280
WIRE -352 1296 -352 1248
WIRE 1312 1328 1312 1280
WIRE 1424 1328 1424 1168
WIRE 1424 1328 1312 1328
WIRE 1488 1328 1424 1328
WIRE 1584 1328 1568 1328
WIRE 1680 1328 1680 1168
WIRE 1680 1328 1648 1328
WIRE 1312 1408 1312 1328
WIRE -352 1424 -352 1376
WIRE 1680 1440 1680 1328
WIRE 1680 1440 1344 1440
WIRE 1680 1472 1680 1440
WIRE 1312 1552 1312 1472
WIRE 1584 1552 1312 1552
WIRE 1680 1552 1584 1552
WIRE 1584 1584 1584 1552
FLAG -704 768 0
FLAG -768 544 Vin
FLAG 416 752 0
FLAG 1584 1584 0
FLAG 832 544 Vout
FLAG 1472 1248 0
FLAG 384 1056 0
FLAG -816 976 0
FLAG -1152 992 0
FLAG -352 1424 0
SYMBOL voltage -784 576 R0
WINDOW 123 0 0 Left 0
WINDOW 39 0 0 Left 0
SYMATTR InstName V1
SYMATTR Value 30
SYMBOL ind2 -192 704 R180
WINDOW 0 36 80 Left 2
WINDOW 3 36 40 Left 2
SYMATTR InstName L1
SYMATTR Value 100µ
SYMATTR Type ind
SYMBOL ind2 -16 544 R0
SYMATTR InstName L2
SYMATTR Value 100µ
SYMATTR Type ind
SYMBOL res 816 576 R0
SYMATTR InstName R8
SYMATTR Value 5
SYMBOL polcap 720 592 R0
WINDOW 3 24 56 Left 2
SYMATTR Value 20µ
SYMATTR InstName C4
SYMATTR SpiceLine V=63 Irms=2.92 Rser=0.004 Lser=5.32n
SYMATTR Description Capacitor
SYMATTR Type cap
SYMBOL schottky 352 560 R270
WINDOW 0 32 32 VTop 2
WINDOW 3 0 32 VBottom 2
SYMATTR InstName D1
SYMATTR Value MBR20100CT
SYMATTR Description Diode
SYMATTR Type diode
SYMBOL polcap -656 592 R0
WINDOW 3 24 56 Left 2
SYMATTR Value 10n
SYMATTR InstName C5
SYMATTR Description Capacitor
SYMATTR Type cap
SYMATTR SpiceLine V=50 Irms=1.87845 Rser=0.07 Lser=0
SYMBOL ind -368 576 R0
SYMATTR InstName Lm1
SYMATTR Value 19µ
SYMBOL res -416 528 R90
WINDOW 0 0 56 VBottom 2
WINDOW 3 32 56 VTop 2
SYMATTR InstName R9
SYMATTR Value 4.606m
SYMBOL res 224 528 R90
WINDOW 0 0 56 VBottom 2
WINDOW 3 32 56 VTop 2
SYMATTR InstName R10
SYMATTR Value 4.606m
SYMBOL res -560 576 R0
SYMATTR InstName R11
SYMATTR Value 50k
SYMBOL diode -416 768 R90
WINDOW 0 0 32 VBottom 2
WINDOW 3 32 32 VTop 2
SYMATTR InstName D2
SYMBOL cap 656 592 R0
SYMATTR InstName C6
SYMATTR Value 39µ
SYMATTR SpiceLine V=35 Irms=2.7 Rser=0.0113 Lser=5.18n mfg="Würth Elektronik" pn="875075655001 WCAP-PSLC 8 x 11,7" type="Al polymer"
SYMBOL polcap 512 592 R0
WINDOW 3 24 56 Left 2
SYMATTR Value 470µ
SYMATTR InstName C7
SYMATTR Description Capacitor
SYMATTR Type cap
SYMATTR SpiceLine V=450 Irms=1.94 Rser=0.086 Lser=8n mfg="Würth Elektronik" pn="861141485033 WCAP-AI3H 30x40" type="Al electrolytic"
SYMBOL ind 544 560 R270
WINDOW 0 32 56 VTop 2
WINDOW 3 5 56 VBottom 2
SYMATTR InstName L4
SYMATTR Value 1.5µ
SYMBOL Optos\\PC817C 1168 1232 M0
SYMATTR InstName U2
SYMBOL res 1296 1040 R0
SYMATTR InstName R12
SYMATTR Value 1.3k
SYMBOL res 1664 1072 R0
SYMATTR InstName R13
SYMATTR Value 9.53k
SYMBOL res 1664 1456 R0
SYMATTR InstName R14
SYMATTR Value 2.49k
SYMBOL cap 1648 1312 R90
WINDOW 0 0 32 VBottom 2
WINDOW 3 32 32 VTop 2
SYMATTR InstName C8
SYMATTR Value 0.01µ
SYMBOL References\\RH1009 1312 1440 R0
SYMATTR InstName U3
SYMBOL UC3845 224 1152 M0
WINDOW 39 0 166 Center 2
SYMATTR SpiceLine toggle=1
SYMATTR InstName X1
SYMBOL res 1584 1312 R90
WINDOW 0 0 56 VBottom 2
WINDOW 3 32 56 VTop 2
SYMATTR InstName R3
SYMATTR Value 88.7k
SYMBOL res 1408 1056 R0
SYMATTR InstName R4
SYMATTR Value 1k
SYMBOL diode 1488 1248 R180
WINDOW 0 24 64 Left 2
WINDOW 3 24 0 Left 2
SYMATTR InstName D3
SYMATTR Value MMSD4148
SYMBOL ind2 -832 848 R0
SYMATTR InstName L3
SYMATTR Value 10µ
SYMATTR Type ind
SYMBOL res -864 848 R90
WINDOW 0 0 56 VBottom 2
WINDOW 3 32 56 VTop 2
SYMATTR InstName R1
SYMATTR Value 22
SYMBOL diode -1008 848 R90
WINDOW 0 0 32 VBottom 2
WINDOW 3 32 32 VTop 2
SYMATTR InstName D4
SYMBOL cap -1168 896 R0
SYMATTR InstName C2
SYMATTR Value 100n
SYMBOL res -1168 624 R0
SYMATTR InstName R2
SYMATTR Value 100k
SYMBOL nmos -304 1088 M0
SYMATTR InstName M1
SYMBOL res -368 1280 R0
SYMATTR InstName R5
SYMATTR Value 0.75
SYMBOL res -272 1184 R270
WINDOW 0 32 56 VTop 2
WINDOW 3 0 56 VBottom 2
SYMATTR InstName R6
SYMATTR Value 1
TEXT -272 1792 Left 2 !.tran 10m startup
TEXT -152 528 Left 2 !K L1 L2 L3 1
